<?xml version="1.0" encoding="UTF-8"?>

<!-- generated on Fri Jan 29 10:44:30 2016 by SUMO netgenerate Version 0.23.0
<?xml version="1.0" encoding="UTF-8"?>

<configuration xmlns:xsi="http://www.w3.org/2001/XMLSchema-instance" xsi:noNamespaceSchemaLocation="http://sumo.dlr.de/xsd/netgenerateConfiguration.xsd">

    <grid_network>
        <grid value="true"/>
        <grid.number value="10"/>
        <grid.length value="250"/>
    </grid_network>

    <output>
        <output-file value="Manhattan10.net.xml"/>
    </output>

    <building_defaults>
        <default.lanenumber value="2"/>
    </building_defaults>

</configuration>
-->

<net version="0.13" xmlns:xsi="http://www.w3.org/2001/XMLSchema-instance" xsi:noNamespaceSchemaLocation="http://sumo.dlr.de/xsd/net_file.xsd">

    <location netOffset="0.00,0.00" convBoundary="0.00,0.00,2250.00,2250.00" origBoundary="0.00,0.00,2250.00,2250.00" projParameter="!"/>

    <edge id=":0/0_0" function="internal">
        <lane id=":0/0_0_0" index="0" speed="13.90" length="15.89" shape="-4.95,6.55 -4.23,1.52 -2.08,-2.08 1.52,-4.23 6.55,-4.95"/>
        <lane id=":0/0_0_1" index="1" speed="13.90" length="15.89" shape="-1.65,6.55 -1.14,2.96 0.40,0.40 2.96,-1.14 6.55,-1.65"/>
    </edge>
    <edge id=":0/0_2" function="internal">
        <lane id=":0/0_2_0" index="0" speed="13.90" length="2.69" shape="-1.65,6.55 -0.82,5.31 0.00,4.90 0.25,5.03"/>
    </edge>
    <edge id=":0/0_6" function="internal">
        <lane id=":0/0_6_0" index="0" speed="13.90" length="2.13" shape="0.25,5.03 0.83,5.31 1.65,6.55"/>
    </edge>
    <edge id=":0/0_3" function="internal">
        <lane id=":0/0_3_0" index="0" speed="13.90" length="5.24" shape="6.55,4.95 5.85,5.05 5.35,5.35 5.05,5.85 4.95,6.55"/>
        <lane id=":0/0_3_1" index="1" speed="13.90" length="5.24" shape="6.55,1.65 4.41,1.96 2.88,2.87 1.96,4.41 1.65,6.55"/>
    </edge>
    <edge id=":0/0_5" function="internal">
        <lane id=":0/0_5_0" index="0" speed="13.90" length="2.20" shape="6.55,1.65 5.31,0.83 4.99,0.19"/>
    </edge>
    <edge id=":0/0_7" function="internal">
        <lane id=":0/0_7_0" index="0" speed="13.90" length="2.62" shape="4.99,0.19 4.90,0.00 5.31,-0.82 6.55,-1.65"/>
    </edge>
    <edge id=":0/1_0" function="internal">
        <lane id=":0/1_0_0" index="0" speed="13.90" length="16.10" shape="-4.95,258.05 -4.95,253.27 -4.95,250.00 -4.95,246.73 -4.95,241.95"/>
        <lane id=":0/1_0_1" index="1" speed="13.90" length="16.10" shape="-1.65,258.05 -1.65,253.27 -1.65,250.00 -1.65,246.73 -1.65,241.95"/>
    </edge>
    <edge id=":0/1_2" function="internal">
        <lane id=":0/1_2_0" index="0" speed="13.90" length="6.41" shape="-1.65,258.05 -1.04,253.81 0.05,251.98"/>
    </edge>
    <edge id=":0/1_3" function="internal">
        <lane id=":0/1_3_0" index="0" speed="13.90" length="2.41" shape="-1.65,258.05 -0.83,256.81 -0.00,256.40"/>
    </edge>
    <edge id=":0/1_11" function="internal">
        <lane id=":0/1_11_0" index="0" speed="13.90" length="9.23" shape="0.05,251.98 0.77,250.78 3.81,248.96 8.05,248.35"/>
    </edge>
    <edge id=":0/1_12" function="internal">
        <lane id=":0/1_12_0" index="0" speed="13.90" length="2.41" shape="-0.00,256.40 0.82,256.81 1.65,258.05"/>
    </edge>
    <edge id=":0/1_4" function="internal">
        <lane id=":0/1_4_0" index="0" speed="13.90" length="5.00" shape="8.05,254.95 6.69,255.14 5.73,255.72 5.14,256.69 4.95,258.05"/>
    </edge>
    <edge id=":0/1_5" function="internal">
        <lane id=":0/1_5_0" index="0" speed="13.90" length="15.64" shape="8.05,251.65 3.81,251.04 0.78,249.23 -1.04,246.19 -1.65,241.95"/>
    </edge>
    <edge id=":0/1_6" function="internal">
        <lane id=":0/1_6_0" index="0" speed="13.90" length="4.82" shape="8.05,251.65 6.81,250.82 6.40,250.00 6.81,249.18 8.05,248.35"/>
    </edge>
    <edge id=":0/1_7" function="internal">
        <lane id=":0/1_7_0" index="0" speed="13.90" length="5.00" shape="4.95,241.95 5.14,243.31 5.72,244.28 6.69,244.86 8.05,245.05"/>
    </edge>
    <edge id=":0/1_8" function="internal">
        <lane id=":0/1_8_0" index="0" speed="13.90" length="16.10" shape="4.95,241.95 4.95,246.73 4.95,250.00 4.95,253.27 4.95,258.05"/>
        <lane id=":0/1_8_1" index="1" speed="13.90" length="16.10" shape="1.65,241.95 1.65,246.73 1.65,250.00 1.65,253.27 1.65,258.05"/>
    </edge>
    <edge id=":0/1_10" function="internal">
        <lane id=":0/1_10_0" index="0" speed="13.90" length="2.41" shape="1.65,241.95 0.83,243.19 0.00,243.60"/>
    </edge>
    <edge id=":0/1_13" function="internal">
        <lane id=":0/1_13_0" index="0" speed="13.90" length="2.41" shape="0.00,243.60 -0.82,243.19 -1.65,241.95"/>
    </edge>
    <edge id=":0/2_0" function="internal">
        <lane id=":0/2_0_0" index="0" speed="13.90" length="16.10" shape="-4.95,508.05 -4.95,503.27 -4.95,500.00 -4.95,496.73 -4.95,491.95"/>
        <lane id=":0/2_0_1" index="1" speed="13.90" length="16.10" shape="-1.65,508.05 -1.65,503.27 -1.65,500.00 -1.65,496.73 -1.65,491.95"/>
    </edge>
    <edge id=":0/2_2" function="internal">
        <lane id=":0/2_2_0" index="0" speed="13.90" length="6.41" shape="-1.65,508.05 -1.04,503.81 0.05,501.98"/>
    </edge>
    <edge id=":0/2_3" function="internal">
        <lane id=":0/2_3_0" index="0" speed="13.90" length="2.41" shape="-1.65,508.05 -0.83,506.81 -0.00,506.40"/>
    </edge>
    <edge id=":0/2_11" function="internal">
        <lane id=":0/2_11_0" index="0" speed="13.90" length="9.23" shape="0.05,501.98 0.77,500.77 3.81,498.96 8.05,498.35"/>
    </edge>
    <edge id=":0/2_12" function="internal">
        <lane id=":0/2_12_0" index="0" speed="13.90" length="2.41" shape="-0.00,506.40 0.82,506.81 1.65,508.05"/>
    </edge>
    <edge id=":0/2_4" function="internal">
        <lane id=":0/2_4_0" index="0" speed="13.90" length="5.00" shape="8.05,504.95 6.69,505.14 5.73,505.72 5.14,506.69 4.95,508.05"/>
    </edge>
    <edge id=":0/2_5" function="internal">
        <lane id=":0/2_5_0" index="0" speed="13.90" length="15.64" shape="8.05,501.65 3.81,501.04 0.77,499.22 -1.04,496.19 -1.65,491.95"/>
    </edge>
    <edge id=":0/2_6" function="internal">
        <lane id=":0/2_6_0" index="0" speed="13.90" length="4.82" shape="8.05,501.65 6.81,500.82 6.40,500.00 6.81,499.18 8.05,498.35"/>
    </edge>
    <edge id=":0/2_7" function="internal">
        <lane id=":0/2_7_0" index="0" speed="13.90" length="5.00" shape="4.95,491.95 5.14,493.31 5.72,494.27 6.69,494.86 8.05,495.05"/>
    </edge>
    <edge id=":0/2_8" function="internal">
        <lane id=":0/2_8_0" index="0" speed="13.90" length="16.10" shape="4.95,491.95 4.95,496.73 4.95,500.00 4.95,503.27 4.95,508.05"/>
        <lane id=":0/2_8_1" index="1" speed="13.90" length="16.10" shape="1.65,491.95 1.65,496.73 1.65,500.00 1.65,503.27 1.65,508.05"/>
    </edge>
    <edge id=":0/2_10" function="internal">
        <lane id=":0/2_10_0" index="0" speed="13.90" length="2.41" shape="1.65,491.95 0.83,493.19 0.00,493.60"/>
    </edge>
    <edge id=":0/2_13" function="internal">
        <lane id=":0/2_13_0" index="0" speed="13.90" length="2.41" shape="0.00,493.60 -0.82,493.19 -1.65,491.95"/>
    </edge>
    <edge id=":0/3_0" function="internal">
        <lane id=":0/3_0_0" index="0" speed="13.90" length="16.10" shape="-4.95,758.05 -4.95,753.27 -4.95,750.00 -4.95,746.73 -4.95,741.95"/>
        <lane id=":0/3_0_1" index="1" speed="13.90" length="16.10" shape="-1.65,758.05 -1.65,753.27 -1.65,750.00 -1.65,746.73 -1.65,741.95"/>
    </edge>
    <edge id=":0/3_2" function="internal">
        <lane id=":0/3_2_0" index="0" speed="13.90" length="6.41" shape="-1.65,758.05 -1.04,753.81 0.05,751.98"/>
    </edge>
    <edge id=":0/3_3" function="internal">
        <lane id=":0/3_3_0" index="0" speed="13.90" length="2.41" shape="-1.65,758.05 -0.83,756.81 -0.00,756.40"/>
    </edge>
    <edge id=":0/3_11" function="internal">
        <lane id=":0/3_11_0" index="0" speed="13.90" length="9.23" shape="0.05,751.98 0.77,750.77 3.81,748.96 8.05,748.35"/>
    </edge>
    <edge id=":0/3_12" function="internal">
        <lane id=":0/3_12_0" index="0" speed="13.90" length="2.41" shape="-0.00,756.40 0.82,756.81 1.65,758.05"/>
    </edge>
    <edge id=":0/3_4" function="internal">
        <lane id=":0/3_4_0" index="0" speed="13.90" length="5.00" shape="8.05,754.95 6.69,755.14 5.72,755.73 5.14,756.69 4.95,758.05"/>
    </edge>
    <edge id=":0/3_5" function="internal">
        <lane id=":0/3_5_0" index="0" speed="13.90" length="15.64" shape="8.05,751.65 3.81,751.04 0.78,749.22 -1.04,746.19 -1.65,741.95"/>
    </edge>
    <edge id=":0/3_6" function="internal">
        <lane id=":0/3_6_0" index="0" speed="13.90" length="4.82" shape="8.05,751.65 6.81,750.82 6.40,750.00 6.81,749.17 8.05,748.35"/>
    </edge>
    <edge id=":0/3_7" function="internal">
        <lane id=":0/3_7_0" index="0" speed="13.90" length="5.00" shape="4.95,741.95 5.14,743.31 5.72,744.27 6.69,744.86 8.05,745.05"/>
    </edge>
    <edge id=":0/3_8" function="internal">
        <lane id=":0/3_8_0" index="0" speed="13.90" length="16.10" shape="4.95,741.95 4.95,746.73 4.95,750.00 4.95,753.27 4.95,758.05"/>
        <lane id=":0/3_8_1" index="1" speed="13.90" length="16.10" shape="1.65,741.95 1.65,746.73 1.65,750.00 1.65,753.27 1.65,758.05"/>
    </edge>
    <edge id=":0/3_10" function="internal">
        <lane id=":0/3_10_0" index="0" speed="13.90" length="2.41" shape="1.65,741.95 0.83,743.19 0.00,743.60"/>
    </edge>
    <edge id=":0/3_13" function="internal">
        <lane id=":0/3_13_0" index="0" speed="13.90" length="2.41" shape="0.00,743.60 -0.82,743.19 -1.65,741.95"/>
    </edge>
    <edge id=":0/4_0" function="internal">
        <lane id=":0/4_0_0" index="0" speed="13.90" length="16.10" shape="-4.95,1008.05 -4.95,1003.27 -4.95,1000.00 -4.95,996.73 -4.95,991.95"/>
        <lane id=":0/4_0_1" index="1" speed="13.90" length="16.10" shape="-1.65,1008.05 -1.65,1003.27 -1.65,1000.00 -1.65,996.73 -1.65,991.95"/>
    </edge>
    <edge id=":0/4_2" function="internal">
        <lane id=":0/4_2_0" index="0" speed="13.90" length="6.41" shape="-1.65,1008.05 -1.04,1003.81 0.05,1001.98"/>
    </edge>
    <edge id=":0/4_3" function="internal">
        <lane id=":0/4_3_0" index="0" speed="13.90" length="2.41" shape="-1.65,1008.05 -0.83,1006.81 -0.00,1006.40"/>
    </edge>
    <edge id=":0/4_11" function="internal">
        <lane id=":0/4_11_0" index="0" speed="13.90" length="9.23" shape="0.05,1001.98 0.77,1000.77 3.81,998.96 8.05,998.35"/>
    </edge>
    <edge id=":0/4_12" function="internal">
        <lane id=":0/4_12_0" index="0" speed="13.90" length="2.41" shape="-0.00,1006.40 0.82,1006.81 1.65,1008.05"/>
    </edge>
    <edge id=":0/4_4" function="internal">
        <lane id=":0/4_4_0" index="0" speed="13.90" length="5.00" shape="8.05,1004.95 6.69,1005.14 5.73,1005.73 5.14,1006.69 4.95,1008.05"/>
    </edge>
    <edge id=":0/4_5" function="internal">
        <lane id=":0/4_5_0" index="0" speed="13.90" length="15.64" shape="8.05,1001.65 3.81,1001.04 0.78,999.22 -1.04,996.19 -1.65,991.95"/>
    </edge>
    <edge id=":0/4_6" function="internal">
        <lane id=":0/4_6_0" index="0" speed="13.90" length="4.82" shape="8.05,1001.65 6.81,1000.83 6.40,1000.00 6.81,999.17 8.05,998.35"/>
    </edge>
    <edge id=":0/4_7" function="internal">
        <lane id=":0/4_7_0" index="0" speed="13.90" length="5.00" shape="4.95,991.95 5.14,993.31 5.72,994.27 6.69,994.86 8.05,995.05"/>
    </edge>
    <edge id=":0/4_8" function="internal">
        <lane id=":0/4_8_0" index="0" speed="13.90" length="16.10" shape="4.95,991.95 4.95,996.73 4.95,1000.00 4.95,1003.27 4.95,1008.05"/>
        <lane id=":0/4_8_1" index="1" speed="13.90" length="16.10" shape="1.65,991.95 1.65,996.73 1.65,1000.00 1.65,1003.27 1.65,1008.05"/>
    </edge>
    <edge id=":0/4_10" function="internal">
        <lane id=":0/4_10_0" index="0" speed="13.90" length="2.41" shape="1.65,991.95 0.83,993.19 0.00,993.60"/>
    </edge>
    <edge id=":0/4_13" function="internal">
        <lane id=":0/4_13_0" index="0" speed="13.90" length="2.41" shape="0.00,993.60 -0.82,993.19 -1.65,991.95"/>
    </edge>
    <edge id=":0/5_0" function="internal">
        <lane id=":0/5_0_0" index="0" speed="13.90" length="16.10" shape="-4.95,1258.05 -4.95,1253.27 -4.95,1250.00 -4.95,1246.73 -4.95,1241.95"/>
        <lane id=":0/5_0_1" index="1" speed="13.90" length="16.10" shape="-1.65,1258.05 -1.65,1253.27 -1.65,1250.00 -1.65,1246.73 -1.65,1241.95"/>
    </edge>
    <edge id=":0/5_2" function="internal">
        <lane id=":0/5_2_0" index="0" speed="13.90" length="6.41" shape="-1.65,1258.05 -1.04,1253.81 0.05,1251.98"/>
    </edge>
    <edge id=":0/5_3" function="internal">
        <lane id=":0/5_3_0" index="0" speed="13.90" length="2.41" shape="-1.65,1258.05 -0.83,1256.81 -0.00,1256.40"/>
    </edge>
    <edge id=":0/5_11" function="internal">
        <lane id=":0/5_11_0" index="0" speed="13.90" length="9.23" shape="0.05,1251.98 0.77,1250.78 3.81,1248.96 8.05,1248.35"/>
    </edge>
    <edge id=":0/5_12" function="internal">
        <lane id=":0/5_12_0" index="0" speed="13.90" length="2.41" shape="-0.00,1256.40 0.82,1256.81 1.65,1258.05"/>
    </edge>
    <edge id=":0/5_4" function="internal">
        <lane id=":0/5_4_0" index="0" speed="13.90" length="5.00" shape="8.05,1254.95 6.69,1255.14 5.72,1255.73 5.14,1256.69 4.95,1258.05"/>
    </edge>
    <edge id=":0/5_5" function="internal">
        <lane id=":0/5_5_0" index="0" speed="13.90" length="15.64" shape="8.05,1251.65 3.81,1251.04 0.77,1249.23 -1.04,1246.19 -1.65,1241.95"/>
    </edge>
    <edge id=":0/5_6" function="internal">
        <lane id=":0/5_6_0" index="0" speed="13.90" length="4.82" shape="8.05,1251.65 6.81,1250.82 6.40,1250.00 6.81,1249.17 8.05,1248.35"/>
    </edge>
    <edge id=":0/5_7" function="internal">
        <lane id=":0/5_7_0" index="0" speed="13.90" length="5.00" shape="4.95,1241.95 5.14,1243.31 5.72,1244.28 6.69,1244.86 8.05,1245.05"/>
    </edge>
    <edge id=":0/5_8" function="internal">
        <lane id=":0/5_8_0" index="0" speed="13.90" length="16.10" shape="4.95,1241.95 4.95,1246.73 4.95,1250.00 4.95,1253.27 4.95,1258.05"/>
        <lane id=":0/5_8_1" index="1" speed="13.90" length="16.10" shape="1.65,1241.95 1.65,1246.73 1.65,1250.00 1.65,1253.27 1.65,1258.05"/>
    </edge>
    <edge id=":0/5_10" function="internal">
        <lane id=":0/5_10_0" index="0" speed="13.90" length="2.41" shape="1.65,1241.95 0.83,1243.19 0.00,1243.60"/>
    </edge>
    <edge id=":0/5_13" function="internal">
        <lane id=":0/5_13_0" index="0" speed="13.90" length="2.41" shape="0.00,1243.60 -0.82,1243.19 -1.65,1241.95"/>
    </edge>
    <edge id=":0/6_0" function="internal">
        <lane id=":0/6_0_0" index="0" speed="13.90" length="16.10" shape="-4.95,1508.05 -4.95,1503.27 -4.95,1500.00 -4.95,1496.73 -4.95,1491.95"/>
        <lane id=":0/6_0_1" index="1" speed="13.90" length="16.10" shape="-1.65,1508.05 -1.65,1503.27 -1.65,1500.00 -1.65,1496.73 -1.65,1491.95"/>
    </edge>
    <edge id=":0/6_2" function="internal">
        <lane id=":0/6_2_0" index="0" speed="13.90" length="6.41" shape="-1.65,1508.05 -1.04,1503.81 0.05,1501.98"/>
    </edge>
    <edge id=":0/6_3" function="internal">
        <lane id=":0/6_3_0" index="0" speed="13.90" length="2.41" shape="-1.65,1508.05 -0.83,1506.81 -0.00,1506.40"/>
    </edge>
    <edge id=":0/6_11" function="internal">
        <lane id=":0/6_11_0" index="0" speed="13.90" length="9.23" shape="0.05,1501.98 0.77,1500.78 3.81,1498.96 8.05,1498.35"/>
    </edge>
    <edge id=":0/6_12" function="internal">
        <lane id=":0/6_12_0" index="0" speed="13.90" length="2.41" shape="-0.00,1506.40 0.82,1506.81 1.65,1508.05"/>
    </edge>
    <edge id=":0/6_4" function="internal">
        <lane id=":0/6_4_0" index="0" speed="13.90" length="5.00" shape="8.05,1504.95 6.69,1505.14 5.72,1505.73 5.14,1506.69 4.95,1508.05"/>
    </edge>
    <edge id=":0/6_5" function="internal">
        <lane id=":0/6_5_0" index="0" speed="13.90" length="15.64" shape="8.05,1501.65 3.81,1501.04 0.78,1499.23 -1.04,1496.19 -1.65,1491.95"/>
    </edge>
    <edge id=":0/6_6" function="internal">
        <lane id=":0/6_6_0" index="0" speed="13.90" length="4.82" shape="8.05,1501.65 6.81,1500.82 6.40,1500.00 6.81,1499.17 8.05,1498.35"/>
    </edge>
    <edge id=":0/6_7" function="internal">
        <lane id=":0/6_7_0" index="0" speed="13.90" length="5.00" shape="4.95,1491.95 5.14,1493.31 5.72,1494.28 6.69,1494.86 8.05,1495.05"/>
    </edge>
    <edge id=":0/6_8" function="internal">
        <lane id=":0/6_8_0" index="0" speed="13.90" length="16.10" shape="4.95,1491.95 4.95,1496.73 4.95,1500.00 4.95,1503.27 4.95,1508.05"/>
        <lane id=":0/6_8_1" index="1" speed="13.90" length="16.10" shape="1.65,1491.95 1.65,1496.73 1.65,1500.00 1.65,1503.27 1.65,1508.05"/>
    </edge>
    <edge id=":0/6_10" function="internal">
        <lane id=":0/6_10_0" index="0" speed="13.90" length="2.41" shape="1.65,1491.95 0.83,1493.19 0.00,1493.60"/>
    </edge>
    <edge id=":0/6_13" function="internal">
        <lane id=":0/6_13_0" index="0" speed="13.90" length="2.41" shape="0.00,1493.60 -0.82,1493.19 -1.65,1491.95"/>
    </edge>
    <edge id=":0/7_0" function="internal">
        <lane id=":0/7_0_0" index="0" speed="13.90" length="16.10" shape="-4.95,1758.05 -4.95,1753.27 -4.95,1750.00 -4.95,1746.73 -4.95,1741.95"/>
        <lane id=":0/7_0_1" index="1" speed="13.90" length="16.10" shape="-1.65,1758.05 -1.65,1753.27 -1.65,1750.00 -1.65,1746.73 -1.65,1741.95"/>
    </edge>
    <edge id=":0/7_2" function="internal">
        <lane id=":0/7_2_0" index="0" speed="13.90" length="6.41" shape="-1.65,1758.05 -1.04,1753.81 0.05,1751.98"/>
    </edge>
    <edge id=":0/7_3" function="internal">
        <lane id=":0/7_3_0" index="0" speed="13.90" length="2.41" shape="-1.65,1758.05 -0.83,1756.81 -0.00,1756.40"/>
    </edge>
    <edge id=":0/7_11" function="internal">
        <lane id=":0/7_11_0" index="0" speed="13.90" length="9.23" shape="0.05,1751.98 0.77,1750.78 3.81,1748.96 8.05,1748.35"/>
    </edge>
    <edge id=":0/7_12" function="internal">
        <lane id=":0/7_12_0" index="0" speed="13.90" length="2.41" shape="-0.00,1756.40 0.82,1756.81 1.65,1758.05"/>
    </edge>
    <edge id=":0/7_4" function="internal">
        <lane id=":0/7_4_0" index="0" speed="13.90" length="5.00" shape="8.05,1754.95 6.69,1755.14 5.72,1755.73 5.14,1756.69 4.95,1758.05"/>
    </edge>
    <edge id=":0/7_5" function="internal">
        <lane id=":0/7_5_0" index="0" speed="13.90" length="15.64" shape="8.05,1751.65 3.81,1751.04 0.78,1749.23 -1.04,1746.19 -1.65,1741.95"/>
    </edge>
    <edge id=":0/7_6" function="internal">
        <lane id=":0/7_6_0" index="0" speed="13.90" length="4.82" shape="8.05,1751.65 6.81,1750.82 6.40,1750.00 6.81,1749.17 8.05,1748.35"/>
    </edge>
    <edge id=":0/7_7" function="internal">
        <lane id=":0/7_7_0" index="0" speed="13.90" length="5.00" shape="4.95,1741.95 5.14,1743.31 5.72,1744.28 6.69,1744.86 8.05,1745.05"/>
    </edge>
    <edge id=":0/7_8" function="internal">
        <lane id=":0/7_8_0" index="0" speed="13.90" length="16.10" shape="4.95,1741.95 4.95,1746.73 4.95,1750.00 4.95,1753.27 4.95,1758.05"/>
        <lane id=":0/7_8_1" index="1" speed="13.90" length="16.10" shape="1.65,1741.95 1.65,1746.73 1.65,1750.00 1.65,1753.27 1.65,1758.05"/>
    </edge>
    <edge id=":0/7_10" function="internal">
        <lane id=":0/7_10_0" index="0" speed="13.90" length="2.41" shape="1.65,1741.95 0.83,1743.19 0.00,1743.60"/>
    </edge>
    <edge id=":0/7_13" function="internal">
        <lane id=":0/7_13_0" index="0" speed="13.90" length="2.41" shape="0.00,1743.60 -0.82,1743.19 -1.65,1741.95"/>
    </edge>
    <edge id=":0/8_0" function="internal">
        <lane id=":0/8_0_0" index="0" speed="13.90" length="16.10" shape="-4.95,2008.05 -4.95,2003.27 -4.95,2000.00 -4.95,1996.73 -4.95,1991.95"/>
        <lane id=":0/8_0_1" index="1" speed="13.90" length="16.10" shape="-1.65,2008.05 -1.65,2003.27 -1.65,2000.00 -1.65,1996.73 -1.65,1991.95"/>
    </edge>
    <edge id=":0/8_2" function="internal">
        <lane id=":0/8_2_0" index="0" speed="13.90" length="6.41" shape="-1.65,2008.05 -1.04,2003.81 0.05,2001.98"/>
    </edge>
    <edge id=":0/8_3" function="internal">
        <lane id=":0/8_3_0" index="0" speed="13.90" length="2.41" shape="-1.65,2008.05 -0.83,2006.81 -0.00,2006.40"/>
    </edge>
    <edge id=":0/8_11" function="internal">
        <lane id=":0/8_11_0" index="0" speed="13.90" length="9.23" shape="0.05,2001.98 0.77,2000.78 3.81,1998.96 8.05,1998.35"/>
    </edge>
    <edge id=":0/8_12" function="internal">
        <lane id=":0/8_12_0" index="0" speed="13.90" length="2.41" shape="-0.00,2006.40 0.82,2006.81 1.65,2008.05"/>
    </edge>
    <edge id=":0/8_4" function="internal">
        <lane id=":0/8_4_0" index="0" speed="13.90" length="5.00" shape="8.05,2004.95 6.69,2005.14 5.72,2005.73 5.14,2006.69 4.95,2008.05"/>
    </edge>
    <edge id=":0/8_5" function="internal">
        <lane id=":0/8_5_0" index="0" speed="13.90" length="15.64" shape="8.05,2001.65 3.81,2001.04 0.77,1999.23 -1.04,1996.19 -1.65,1991.95"/>
    </edge>
    <edge id=":0/8_6" function="internal">
        <lane id=":0/8_6_0" index="0" speed="13.90" length="4.82" shape="8.05,2001.65 6.81,2000.83 6.40,2000.00 6.81,1999.17 8.05,1998.35"/>
    </edge>
    <edge id=":0/8_7" function="internal">
        <lane id=":0/8_7_0" index="0" speed="13.90" length="5.00" shape="4.95,1991.95 5.14,1993.31 5.72,1994.28 6.69,1994.86 8.05,1995.05"/>
    </edge>
    <edge id=":0/8_8" function="internal">
        <lane id=":0/8_8_0" index="0" speed="13.90" length="16.10" shape="4.95,1991.95 4.95,1996.73 4.95,2000.00 4.95,2003.27 4.95,2008.05"/>
        <lane id=":0/8_8_1" index="1" speed="13.90" length="16.10" shape="1.65,1991.95 1.65,1996.73 1.65,2000.00 1.65,2003.27 1.65,2008.05"/>
    </edge>
    <edge id=":0/8_10" function="internal">
        <lane id=":0/8_10_0" index="0" speed="13.90" length="2.41" shape="1.65,1991.95 0.83,1993.19 0.00,1993.60"/>
    </edge>
    <edge id=":0/8_13" function="internal">
        <lane id=":0/8_13_0" index="0" speed="13.90" length="2.41" shape="0.00,1993.60 -0.82,1993.19 -1.65,1991.95"/>
    </edge>
    <edge id=":0/9_0" function="internal">
        <lane id=":0/9_0_0" index="0" speed="13.90" length="15.89" shape="6.55,2254.95 1.52,2254.23 -2.08,2252.07 -4.23,2248.48 -4.95,2243.45"/>
        <lane id=":0/9_0_1" index="1" speed="13.90" length="15.89" shape="6.55,2251.65 2.96,2251.14 0.40,2249.60 -1.14,2247.04 -1.65,2243.45"/>
    </edge>
    <edge id=":0/9_2" function="internal">
        <lane id=":0/9_2_0" index="0" speed="13.90" length="2.69" shape="6.55,2251.65 5.31,2250.83 4.90,2250.00 5.03,2249.75"/>
    </edge>
    <edge id=":0/9_6" function="internal">
        <lane id=":0/9_6_0" index="0" speed="13.90" length="2.13" shape="5.03,2249.75 5.31,2249.17 6.55,2248.35"/>
    </edge>
    <edge id=":0/9_3" function="internal">
        <lane id=":0/9_3_0" index="0" speed="13.90" length="5.24" shape="4.95,2243.45 5.05,2244.15 5.35,2244.65 5.85,2244.95 6.55,2245.05"/>
        <lane id=":0/9_3_1" index="1" speed="13.90" length="5.24" shape="1.65,2243.45 1.96,2245.59 2.87,2247.12 4.41,2248.04 6.55,2248.35"/>
    </edge>
    <edge id=":0/9_5" function="internal">
        <lane id=":0/9_5_0" index="0" speed="13.90" length="2.20" shape="1.65,2243.45 0.83,2244.69 0.19,2245.01"/>
    </edge>
    <edge id=":0/9_7" function="internal">
        <lane id=":0/9_7_0" index="0" speed="13.90" length="2.62" shape="0.19,2245.01 0.00,2245.10 -0.82,2244.69 -1.65,2243.45"/>
    </edge>
    <edge id=":1/0_0" function="internal">
        <lane id=":1/0_0_0" index="0" speed="13.90" length="5.00" shape="245.05,8.05 244.86,6.69 244.28,5.73 243.31,5.14 241.95,4.95"/>
    </edge>
    <edge id=":1/0_1" function="internal">
        <lane id=":1/0_1_0" index="0" speed="13.90" length="15.64" shape="248.35,8.05 248.96,3.81 250.77,0.77 253.81,-1.04 258.05,-1.65"/>
    </edge>
    <edge id=":1/0_2" function="internal">
        <lane id=":1/0_2_0" index="0" speed="13.90" length="4.82" shape="248.35,8.05 249.18,6.81 250.00,6.40 250.82,6.81 251.65,8.05"/>
    </edge>
    <edge id=":1/0_3" function="internal">
        <lane id=":1/0_3_0" index="0" speed="13.90" length="5.00" shape="258.05,4.95 256.69,5.14 255.73,5.72 255.14,6.69 254.95,8.05"/>
    </edge>
    <edge id=":1/0_4" function="internal">
        <lane id=":1/0_4_0" index="0" speed="13.90" length="16.10" shape="258.05,4.95 253.27,4.95 250.00,4.95 246.73,4.95 241.95,4.95"/>
        <lane id=":1/0_4_1" index="1" speed="13.90" length="16.10" shape="258.05,1.65 253.27,1.65 250.00,1.65 246.73,1.65 241.95,1.65"/>
    </edge>
    <edge id=":1/0_6" function="internal">
        <lane id=":1/0_6_0" index="0" speed="13.90" length="2.41" shape="258.05,1.65 256.81,0.83 256.40,0.00"/>
    </edge>
    <edge id=":1/0_11" function="internal">
        <lane id=":1/0_11_0" index="0" speed="13.90" length="2.41" shape="256.40,0.00 256.81,-0.82 258.05,-1.65"/>
    </edge>
    <edge id=":1/0_7" function="internal">
        <lane id=":1/0_7_0" index="0" speed="13.90" length="16.10" shape="241.95,-4.95 246.73,-4.95 250.00,-4.95 253.27,-4.95 258.05,-4.95"/>
        <lane id=":1/0_7_1" index="1" speed="13.90" length="16.10" shape="241.95,-1.65 246.73,-1.65 250.00,-1.65 253.27,-1.65 258.05,-1.65"/>
    </edge>
    <edge id=":1/0_9" function="internal">
        <lane id=":1/0_9_0" index="0" speed="13.90" length="6.41" shape="241.95,-1.65 246.19,-1.04 248.02,0.05"/>
    </edge>
    <edge id=":1/0_10" function="internal">
        <lane id=":1/0_10_0" index="0" speed="13.90" length="2.41" shape="241.95,-1.65 243.19,-0.83 243.60,-0.00"/>
    </edge>
    <edge id=":1/0_12" function="internal">
        <lane id=":1/0_12_0" index="0" speed="13.90" length="9.23" shape="248.02,0.05 249.22,0.77 251.04,3.81 251.65,8.05"/>
    </edge>
    <edge id=":1/0_13" function="internal">
        <lane id=":1/0_13_0" index="0" speed="13.90" length="2.41" shape="243.60,-0.00 243.19,0.82 241.95,1.65"/>
    </edge>
    <edge id=":1/1_0" function="internal">
        <lane id=":1/1_0_0" index="0" speed="13.90" length="5.00" shape="245.05,258.05 244.86,256.69 244.28,255.73 243.31,255.14 241.95,254.95"/>
    </edge>
    <edge id=":1/1_1" function="internal">
        <lane id=":1/1_1_0" index="0" speed="13.90" length="16.10" shape="245.05,258.05 245.05,253.27 245.05,250.00 245.05,246.73 245.05,241.95"/>
        <lane id=":1/1_1_1" index="1" speed="13.90" length="16.10" shape="248.35,258.05 248.35,253.27 248.35,250.00 248.35,246.73 248.35,241.95"/>
    </edge>
    <edge id=":1/1_3" function="internal">
        <lane id=":1/1_3_0" index="0" speed="13.90" length="6.41" shape="248.35,258.05 248.96,253.81 250.05,251.98"/>
    </edge>
    <edge id=":1/1_4" function="internal">
        <lane id=":1/1_4_0" index="0" speed="13.90" length="2.41" shape="248.35,258.05 249.18,256.81 250.00,256.40"/>
    </edge>
    <edge id=":1/1_18" function="internal">
        <lane id=":1/1_18_0" index="0" speed="13.90" length="9.23" shape="250.05,251.98 250.77,250.78 253.81,248.96 258.05,248.35"/>
    </edge>
    <edge id=":1/1_19" function="internal">
        <lane id=":1/1_19_0" index="0" speed="13.90" length="2.41" shape="250.00,256.40 250.82,256.81 251.65,258.05"/>
    </edge>
    <edge id=":1/1_5" function="internal">
        <lane id=":1/1_5_0" index="0" speed="13.90" length="5.00" shape="258.05,254.95 256.69,255.14 255.73,255.72 255.14,256.69 254.95,258.05"/>
    </edge>
    <edge id=":1/1_6" function="internal">
        <lane id=":1/1_6_0" index="0" speed="13.90" length="16.10" shape="258.05,251.65 253.27,251.65 250.00,251.65 246.73,251.65 241.95,251.65"/>
    </edge>
    <edge id=":1/1_7" function="internal">
        <lane id=":1/1_7_0" index="0" speed="13.90" length="15.64" shape="258.05,251.65 253.81,251.04 250.78,249.23 248.96,246.19 248.35,241.95"/>
    </edge>
    <edge id=":1/1_8" function="internal">
        <lane id=":1/1_8_0" index="0" speed="13.90" length="4.82" shape="258.05,251.65 256.81,250.82 256.40,250.00 256.81,249.18 258.05,248.35"/>
    </edge>
    <edge id=":1/1_9" function="internal">
        <lane id=":1/1_9_0" index="0" speed="13.90" length="5.00" shape="254.95,241.95 255.14,243.31 255.72,244.27 256.69,244.86 258.05,245.05"/>
    </edge>
    <edge id=":1/1_10" function="internal">
        <lane id=":1/1_10_0" index="0" speed="13.90" length="16.10" shape="254.95,241.95 254.95,246.73 254.95,250.00 254.95,253.27 254.95,258.05"/>
        <lane id=":1/1_10_1" index="1" speed="13.90" length="16.10" shape="251.65,241.95 251.65,246.73 251.65,250.00 251.65,253.27 251.65,258.05"/>
    </edge>
    <edge id=":1/1_12" function="internal">
        <lane id=":1/1_12_0" index="0" speed="13.90" length="6.41" shape="251.65,241.95 251.04,246.19 249.95,248.02"/>
    </edge>
    <edge id=":1/1_13" function="internal">
        <lane id=":1/1_13_0" index="0" speed="13.90" length="2.41" shape="251.65,241.95 250.82,243.19 250.00,243.60"/>
    </edge>
    <edge id=":1/1_20" function="internal">
        <lane id=":1/1_20_0" index="0" speed="13.90" length="9.23" shape="249.95,248.02 249.23,249.23 246.19,251.04 241.95,251.65"/>
    </edge>
    <edge id=":1/1_21" function="internal">
        <lane id=":1/1_21_0" index="0" speed="13.90" length="2.41" shape="250.00,243.60 249.18,243.19 248.35,241.95"/>
    </edge>
    <edge id=":1/1_14" function="internal">
        <lane id=":1/1_14_0" index="0" speed="13.90" length="5.00" shape="241.95,245.05 243.31,244.86 244.28,244.28 244.86,243.31 245.05,241.95"/>
    </edge>
    <edge id=":1/1_15" function="internal">
        <lane id=":1/1_15_0" index="0" speed="13.90" length="16.10" shape="241.95,248.35 246.73,248.35 250.00,248.35 253.27,248.35 258.05,248.35"/>
    </edge>
    <edge id=":1/1_16" function="internal">
        <lane id=":1/1_16_0" index="0" speed="13.90" length="15.64" shape="241.95,248.35 246.19,248.96 249.23,250.77 251.04,253.81 251.65,258.05"/>